288
-1 20.0900 19.7380 13.1420 0 0 0
O         10.06911        1.37969        9.22306
O          7.78487        1.46653       10.52411
O          8.02596        2.69621        8.21507
O          7.97975        0.06711        8.31363
O          6.60961        0.75991       12.77665
O          6.62367       18.85966       10.71730
O          5.16514        1.30863       10.65291
O          5.84619        2.55804        1.39305
O          4.08631        0.89808        0.36141
O          5.89842        0.01974        2.05541
O          2.15968        2.49686        1.16044
O          1.69961        0.73031       12.40999
O          2.61371        1.54154       10.07991
O          1.46255       18.92677       10.29282
O          4.42181        2.59160        8.48448
O          9.86620       16.87204        9.42150
O          7.39513       16.40425       10.17585
O          8.56437       14.80350        8.45162
O          6.46295       16.99639       12.56507
O          4.84169       16.93915       10.50046
O          5.91249       14.80350        0.76092
O          3.96978       16.40820        0.00394
O          1.90453       14.80350        0.26941
O          1.62528       17.11285       12.18921
O          2.36459       16.52071        9.73297
O          4.25104       14.80350        9.08506
Si         8.46593        1.40337        9.06535
Si         6.54733        0.66320       11.17070
Si         5.60913        1.05796        0.86080
Si         2.50321        1.01453        0.63213
Si         1.44849        0.71057       10.81981
Si         4.08631        1.35600        9.45830
Si         8.42775       16.33122        8.94313
Si         6.33237       17.30036       10.98803
Si         5.49060       16.33912        0.52831
Si         2.38066       16.34109        0.24050
Si         1.31991       17.35760       10.62794
Si         3.91152       16.35886        9.32031
O         20.06589       18.35831        2.65206
O         10.02089       11.24869        3.91894
O          0.02411        8.48931       10.48994
O         10.02089       18.35831        3.91894
O          0.02411        1.37969       10.48994
O         10.06911        8.48931        9.22306
O         20.06589       11.24869        2.65206
O          2.26012       18.27147        3.95311
O         12.30512       11.33553        2.61789
O         17.82987        8.40247        9.18889
O         12.30512       18.27147        2.61789
O         17.82987        1.46653        9.18889
O          7.78487        8.40247       10.52411
O          2.26012       11.33553        3.95311
O          2.01904       17.04179        1.64406
O         12.06404       12.56521        4.92694
O         18.07095        7.17279       11.49794
O         12.06404       17.04179        4.92694
O         18.07096        2.69621       11.49794
O          8.02596        7.17279        8.21507
O          2.01904       12.56521        1.64406
O          2.06525       19.67089        1.74263
O         12.11025        9.93611        4.82837
O         18.02475        9.80189       11.39937
O         12.11025       19.67089        4.82837
O         18.02475        0.06711       11.39937
O          7.97975        9.80189        8.31363
O          2.06525        9.93611        1.74263
O          3.43539       18.97809        6.20565
O         13.48039       10.62891        0.36535
O         16.65461        9.10909        6.93635
O         13.48039       18.97809        0.36535
O         16.65461        0.75991        6.93635
O          6.60961        9.10909       12.77665
O          3.43539       10.62891        6.20565
O          3.42133        0.87834        4.14630
O         13.46633        8.99066        2.42470
O         16.66867       10.74734        8.99570
O         13.46633        0.87834        2.42470
O         16.66867       18.85966        8.99570
O          6.62367       10.74734       10.71730
O          3.42133        8.99066        4.14630
O          4.87986       18.42937        4.08191
O         14.92486       11.17763        2.48909
O         15.21014        8.56037        9.06009
O         14.92486       18.42937        2.48909
O         15.21014        1.30863        9.06009
O          5.16514        8.56037       10.65291
O          4.87986       11.17763        4.08191
O          4.19881       17.17996        7.96405
O         14.24381       12.42704       11.74895
O         15.89119        7.31096        5.17795
O         14.24381       17.17996       11.74895
O         15.89119        2.55804        5.17795
O          5.84619        7.31096        1.39305
O          4.19881       12.42705        7.96405
O          5.95869       18.83992        6.93241
O         16.00369       10.76708       12.78060
O         14.13131        8.97092        6.20960
O         16.00369       18.83992       12.78060
O         14.13131        0.89808        6.20960
O          4.08631        8.97092        0.36141
O          5.95869       10.76708        6.93241
O          4.14658       19.71826        8.62641
O         14.19158        9.88874       11.08659
O         15.94342        9.84926        4.51559
O         14.19158       19.71826       11.08659
O         15.94342        0.01974        4.51559
O          5.89842        9.84926        2.05541
O          4.14658        9.88874        8.62641
O          7.88532       17.24114        7.73144
O         17.93032       12.36586       11.98156
O         12.20467        7.37214        5.41056
O         17.93032       17.24114       11.98156
O         12.20468        2.49686        5.41056
O          2.15967        7.37214        1.16044
O          7.88532       12.36586        7.73144
O          8.34538       19.00769        5.83899
O         18.39039       10.59931        0.73201
O         11.74461        9.13869        7.30301
O         18.39039       19.00770        0.73201
O         11.74461        0.73031        7.30301
O          1.69961        9.13869       12.40999
O          8.34539       10.59931        5.83899
O          7.43129       18.19646        3.50891
O         17.47629       11.41054        3.06209
O         12.65871        8.32746        9.63309
O         17.47629       18.19646        3.06209
O         12.65871        1.54154        9.63309
O          2.61371        8.32746       10.07991
O          7.43129       11.41054        3.50891
O          8.58245        0.81123        3.72182
O         18.62745        9.05777        2.84918
O         11.50755       10.68023        9.42019
O         18.62745        0.81123        2.84918
O         11.50755       18.92677        9.42019
O          1.46255       10.68023       10.29282
O          8.58245        9.05777        3.72182
O          5.62319       17.14640        1.91348
O         15.66819       12.46060        4.65753
O         14.46681        7.27740       11.22853
O         15.66819       17.14640        4.65753
O         14.46681        2.59160       11.22853
O          4.42181        7.27740        8.48448
O          5.62319       12.46060        1.91348
O          0.17880        2.86596        2.85050
O         10.22380        7.00304        3.72050
O         19.91120       12.73496       10.29150
O         10.22380        2.86596        3.72050
O         19.91120       16.87204       10.29150
O          9.86620       12.73496        9.42150
O          0.17880        7.00304        2.85050
O          2.64987        3.33375        3.60485
O         12.69487        6.53525        2.96615
O         17.44013       13.20275        9.53715
O         12.69487        3.33375        2.96615
O         17.44013       16.40425        9.53715
O          7.39513       13.20275       10.17585
O          2.64987        6.53525        3.60485
O          1.48063        4.93450        1.88062
O         11.52563        4.93450        4.69038
O         18.60937       14.80350       11.26138
O          3.58205        2.74161        5.99407
O         13.62705        7.12739        0.57693
O         16.50795       12.61061        7.14793
O         13.62705        2.74161        0.57693
O         16.50795       16.99639        7.14793
O          6.46295       12.61061       12.56507
O          3.58205        7.12739        5.99407
O          5.20331        2.79885        3.92946
O         15.24831        7.07015        2.64154
O         14.88669       12.66785        9.21254
O         15.24831        2.79885        2.64154
O         14.88669       16.93915        9.21254
O          4.84169       12.66785       10.50046
O          5.20331        7.07015        3.92946
O          4.13251        4.93450        7.33192
O         14.17751        4.93450       12.38108
O         15.95749       14.80350        5.81008
O          6.07522        3.32980        6.57494
O         16.12022        6.53920       13.13806
O         14.01478       13.19880        6.56706
O         16.12022        3.32980       13.13806
O         14.01478       16.40820        6.56706
O          3.96978       13.19880        0.00394
O          6.07522        6.53920        6.57494
O          8.14047        4.93450        6.84041
O         18.18547        4.93450       12.87259
O         11.94953       14.80350        6.30159
O          8.41972        2.62515        5.61821
O         18.46472        7.24385        0.95280
O         11.67028       12.49415        7.52380
O         18.46472        2.62515        0.95280
O         11.67028       17.11285        7.52380
O          1.62528       12.49415       12.18921
O          8.41972        7.24385        5.61821
O          7.68041        3.21729        3.16197
O         17.72541        6.65171        3.40903
O         12.40959       13.08629        9.98003
O         17.72541        3.21729        3.40903
O         12.40959       16.52071        9.98003
O          2.36459       13.08629        9.73297
O          7.68041        6.65171        3.16197
O          5.79396        4.93450        2.51406
O         15.83896        4.93450        4.05694
O         14.29604       14.80350       10.62794
Si         1.57907       18.33463        2.49435
Si        11.62407       11.27237        4.07665
Si        18.51093        8.46563       10.64765
Si        11.62407       18.33463        4.07665
Si        18.51093        1.40337       10.64765
Si         8.46593        8.46563        9.06535
Si         1.57907       11.27237        2.49435
Si         3.49767       19.07480        4.59970
Si        13.54267       10.53220        1.97130
Si        16.59233        9.20580        8.54230
Si        13.54267       19.07480        1.97130
Si        16.59233        0.66320        8.54230
Si         6.54733        9.20580       11.17070
Si         3.49767       10.53220        4.59970
Si         4.43587       18.68004        7.43180
Si        14.48087       10.92696       12.28120
Si        15.65413        8.81104        5.71020
Si        14.48087       18.68004       12.28120
Si        15.65413        1.05796        5.71020
Si         5.60913        8.81104        0.86080
Si         4.43587       10.92696        7.43180
Si         7.54178       18.72347        7.20313
Si        17.58678       10.88353       12.50987
Si        12.54821        8.85447        5.93887
Si        17.58678       18.72347       12.50987
Si        12.54821        1.01453        5.93887
Si         2.50321        8.85447        0.63213
Si         7.54179       10.88353        7.20313
Si         8.59651       19.02743        4.24881
Si        18.64151       10.57957        2.32219
Si        11.49349        9.15843        8.89319
Si        18.64151       19.02743        2.32219
Si        11.49349        0.71057        8.89319
Si         1.44849        9.15843       10.81981
Si         8.59651       10.57957        4.24881
Si         5.95869       18.38200        2.88730
Si        16.00369       11.22500        3.68370
Si        14.13131        8.51300       10.25470
Si        16.00369       18.38200        3.68370
Si        14.13131        1.35600       10.25470
Si         4.08631        8.51300        9.45830
Si         5.95869       11.22500        2.88730
Si         1.61724        3.40678        2.37213
Si        11.66224        6.46222        4.19887
Si        18.47275       13.27578       10.76987
Si        11.66224        3.40678        4.19887
Si        18.47275       16.33122       10.76987
Si         8.42775       13.27578        8.94313
Si         1.61724        6.46222        2.37213
Si         3.71263        2.43764        4.41703
Si        13.75763        7.43136        2.15397
Si        16.37737       12.30664        8.72497
Si        13.75763        2.43764        2.15397
Si        16.37737       17.30036        8.72497
Si         6.33237       12.30664       10.98803
Si         3.71263        7.43136        4.41703
Si         4.55440        3.39888        7.09931
Si        14.59940        6.47012       12.61369
Si        15.53560       13.26788        6.04269
Si        14.59940        3.39888       12.61369
Si        15.53560       16.33912        6.04269
Si         5.49060       13.26788        0.52831
Si         4.55440        6.47012        7.09931
Si         7.66433        3.39691        6.81150
Si        17.70933        6.47209       12.90150
Si        12.42566       13.26591        6.33050
Si        17.70933        3.39691       12.90150
Si        12.42566       16.34109        6.33050
Si         2.38066       13.26591        0.24050
Si         7.66433        6.47209        6.81150
Si         8.72509        2.38040        4.05694
Si        18.77009        7.48860        2.51406
Si        11.36491       12.24940        9.08506
Si        18.77009        2.38040        2.51406
Si        11.36491       17.35760        9.08506
Si         1.31991       12.24940       10.62794
Si         8.72509        7.48860        4.05694
Si         6.13348        3.37914        2.74931
Si        16.17848        6.48986        3.82169
Si        13.95652       13.24814       10.39269
Si        16.17848        3.37914        3.82169
Si        13.95652       16.35886       10.39269
Si         3.91152       13.24814        9.32031
Si         6.13348        6.48986        2.74931
